*MODEL INPUT FILE            B     8     1     8   999     0
*FILES              
MODEL          MZCER047
FILEX          BRPI0202.MZX C:\DSSAT47\Maize\                                                               
FILEA          BRPI0202.MZA C:\DSSAT47\Maize\                                                               
FILET          BRPI0202.MZT C:\DSSAT47\Maize\                                                               
SPECIES        MZCER047.SPE C:\DSSAT47\GENOTYPE\                                                            
ECOTYPE        MZCER047.ECO C:\DSSAT47\GENOTYPE\                                                            
CULTIVAR       MZCER047.CUL C:\DSSAT47\GENOTYPE\                                                            
PESTS          MZCER047.PST C:\DSSAT47\PEST\                                                                
SOILS          BR.SOL       C:\DSSAT47\SOIL\                                                                
WEATHER        BRPI0201.WTH C:\DSSAT47\Weather\                                                             
OUTPUT         OVERVIEW
*SIMULATION CONTROL 
                   1     1     S 2002060  2150 2002 Maize Experiment Ir 
                   Y     Y     N     N     N     N     N     Y     M
                   M     M     E     R     S     R     R     1     G     S     2     D     0
                   R     R     R     N     M
                   N     Y     Y     1     Y     Y     Y     Y     N     N     Y     N     N
!AUTOMATIC MANAGEM  
               2002072 2002072   40.  100.   30.   40.   10.
                 40.   50.  100. GS000 IR004  10.0 0.900
                 30.   50.   25. FE001 GS000
                100.     1   20.
                     0 2002320  100.    0.
*EXP.DETAILS        
  1BRPI0202 MZ MAIZE IRRIGATED AND RAINFALL                                
*TREATMENTS         
  8 1 0 0 EXCELER - IRRIGATED      
*CULTIVARS          
   MZ IB0174 EXCELER         
*FIELDS             
   BRPI0002 BRPI0201   0.0    0. DR000    0. 100.0 00000 C      120. BRPI020002
           0.00000         0.00000      0.00               1.0  100.   1.0   0.0   -99   -99
*INITIAL CONDITIONS 
   MZ    2002060     0     0  1.00  1.00   0.0  5800  1.50  0.00  100.   15.
      5. 0.260 0.400  3.90
     15. 0.260 0.400  3.90
     20. 0.260 0.400  3.90
     30. 0.260 0.400  3.90
     40. 0.260 0.400  3.90
     67. 0.250 0.400  3.90
     93. 0.250 0.400  3.90
    120. 0.250 0.400  3.90
    150. 0.311 0.010 0.010
*PLANTING DETAILS   
   2002072 2002078   7.0   5.0     S     R   80.   45.   5.0  -99.  -99. -99.0 -99.0   0.0
*IRRIGATION         
   0.900   30.   50.  100. GS000 IR001  10.0
   2002075 IR004   7.0
   2002079 IR004   7.0
   2002089 IR004   7.0
   2002091 IR004  13.0
   2002095 IR004  13.0
   2002097 IR004  13.0
   2002099 IR004   7.0
   2002101 IR004  13.0
   2002103 IR004   7.0
   2002105 IR004  13.0
   2002107 IR004   7.0
   2002109 IR004  13.0
   2002112 IR004  13.0
   2002114 IR004   7.0
   2002116 IR004   7.0
   2002128 IR004  13.0
   2002130 IR004   4.0
   2002133 IR004  13.0
   2002136 IR004  13.0
   2002148 IR004  13.0
   2002151 IR004  13.0
   2002154 IR004  13.0
   2002158 IR004  13.0
   2002162 IR004   4.0
   2002167 IR004  13.0
   2002170 IR004   4.0
   2002172 IR004   6.0
   2002176 IR004  13.0
   2002179 IR004  13.0
   2002182 IR004   9.0
*FERTILIZERS        
   2002072 FE014 AP004    5.   26.  -99.  -99.  -99.  -99.   -99
   2002095 FE005 AP003    0.   50.    0.    0.    0.    0.   -99
   2002113 FE005 AP003    0.   50.    0.    0.    0.    0.   -99
*RESIDUES           
*CHEMICALS          
*TILLAGE            
*ENVIRONMENT        
*HARVEST            
*SOIL               
 BRPI020002  ESALQ       C      120. TERRA ROXA (IRRIGATED)                            
 Piracicaba  Brazil      -22.430 -47.250 Typic Eutrudox                                    
 R      0.14   9.1  0.20   83.  1.00  0.96 IB001 IB001 IB001 -99  
    5.       0.280 0.349 0.530 1.000 0.390  1.23 1.470  65.0  15.0   0.0 0.120  5.00-99.00 10.80-99.00
   15.       0.280 0.349 0.530 1.000 0.390  1.23 1.470  65.0  15.0   0.0 0.120  5.00-99.00 10.80-99.00
   20.       0.280 0.349 0.530 1.000 0.390  1.23 1.470  65.0  15.0   0.0 0.120  5.00-99.00 10.80-99.00
   30.       0.284 0.345 0.530 1.000 0.630  1.13 1.110  65.0  17.0   0.0 0.100  5.50-99.00  9.20-99.00
   40.       0.284 0.345 0.530 1.000 0.630  1.13 1.110  65.0  17.0   0.0 0.100  5.50-99.00  9.20-99.00
   67.       0.280 0.311 0.530 0.900  1.21  1.08 0.900  62.0  16.0   0.0 0.090  5.50-99.00  9.00-99.00
   93.       0.280 0.311 0.530 0.900  1.21  1.08 0.900  62.0  16.0   0.0 0.090  5.50-99.00  9.00-99.00
  120.       0.280 0.311 0.530 0.900  1.21  1.08 0.900  62.0  16.0   0.0 0.090  5.50-99.00  9.00-99.00
  150.       0.280 0.311 0.530 0.100  1.21  1.08 0.900  62.0  16.0   0.0 0.090  5.50-99.00  9.00-99.00
                    
    5.-99.00 -99.0 -99.0 -99.0 -99.0 -99.0 -99.0 -99.0 -99.0 -99.0-99.00 -99.0 -99.0 -99.0 -99.0 -99.0  -99.
   15.-99.00 -99.0 -99.0 -99.0 -99.0 -99.0 -99.0 -99.0 -99.0 -99.0-99.00 -99.0 -99.0 -99.0 -99.0 -99.0  -99.
   20.-99.00 -99.0 -99.0 -99.0 -99.0 -99.0 -99.0 -99.0 -99.0 -99.0-99.00 -99.0 -99.0 -99.0 -99.0 -99.0  -99.
   30.-99.00 -99.0 -99.0 -99.0 -99.0 -99.0 -99.0 -99.0 -99.0 -99.0-99.00 -99.0 -99.0 -99.0 -99.0 -99.0  -99.
   40.-99.00 -99.0 -99.0 -99.0 -99.0 -99.0 -99.0 -99.0 -99.0 -99.0-99.00 -99.0 -99.0 -99.0 -99.0 -99.0  -99.
   67.-99.00 -99.0 -99.0 -99.0 -99.0 -99.0 -99.0 -99.0 -99.0 -99.0-99.00 -99.0 -99.0 -99.0 -99.0 -99.0  -99.
   93.-99.00 -99.0 -99.0 -99.0 -99.0 -99.0 -99.0 -99.0 -99.0 -99.0-99.00 -99.0 -99.0 -99.0 -99.0 -99.0  -99.
  120.-99.00 -99.0 -99.0 -99.0 -99.0 -99.0 -99.0 -99.0 -99.0 -99.0-99.00 -99.0 -99.0 -99.0 -99.0 -99.0  -99.
  150.-99.00 -99.0 -99.0 -99.0 -99.0 -99.0 -99.0 -99.0 -99.0 -99.0-99.00 -99.0 -99.0 -99.0 -99.0 -99.0  -99.
                    
    5.-99.00-99.00-99.00-99.00
   15.-99.00-99.00-99.00-99.00
   20.-99.00-99.00-99.00-99.00
   30.-99.00-99.00-99.00-99.00
   40.-99.00-99.00-99.00-99.00
   67.-99.00-99.00-99.00-99.00
   93.-99.00-99.00-99.00-99.00
  120.-99.00-99.00-99.00-99.00
  150.-99.00-99.00-99.00-99.00
*CULTIVAR           
IB0174 EXCELER          IB0001  210.0 0.500 770.01170.0  5.80 45.00
