*MODEL INPUT FILE            A     1     1     1    12     0
*FILES              
MODEL          MZCER048
FILEX          FIFU9901.MZX                                                                                 
FILEA          FIFU9901.MZA                                                                                 
FILET          FIFU9901.MZT                                                                                 
SPECIES        MZCER048.SPE                                                                                 
ECOTYPE        MZCER048.ECO                                                                                 
CULTIVAR       MZCER048.CUL                                                                                 
PESTS          MZCER048.PST ///usr/local/Pest/                                                              
SOILS          SOIL.SOL                                                                                     
WEATHERW       RCP82101.WTH                                                                                 
OUTPUT         FIFU9901
*SIMULATION CONTROL 
                   1     1     S 2021001  2150 1999, AMES POPxNxHYB     
                   Y     Y     N     N     N     N     N     Y     M
                   M     M     E     R     S     C     R     1     G     S     2     D     0
                   R     N     D     R     M
                   Y     Y     Y     1     Y     Y     Y     Y     N     N     Y     N     N
!AUTOMATIC MANAGEM  
                   -99     -99   25.  100.   30.   40.   10.
                 30.   50.  100. GS000 IR001  10.0 1.000
                 30.   50.   25. FE001 GS000
                100.     1   20.
                     0     -99  100.    0.
*EXP.DETAILS        
  1FIFU9901 MZ PREPCLIM PROJECT                                            
*TREATMENTS         
  1 1 0 0 P:04_01 N000             
*CULTIVARS          
   MZ IB0031 PIO 3475*       
*FIELDS             
   IUAF0001 RCP82101   0.0    0. DR000  900. 100.0 00000 SIC    200. FIFU960007
     -0.0000000099   -0.0000000099    -0.099               1.0  100.   1.0 -99.0   -99   -99
*INITIAL CONDITIONS 
   MZ    1974115    50     0  1.00  1.00   0.0     0  0.00  0.00  100.    0.
      5. 0.228   0.0  1.00
     15. 0.228   0.0  1.00
     18. 0.228   0.0 0.500
     30. 0.228   0.0 0.083
     45. 0.228   0.0   0.0
     53. 0.259   0.0   0.0
     62. 0.310   0.0   0.0
     72. 0.311   0.0   0.0
     82. 0.320   0.0   0.0
    112. 0.304   0.0   0.0
    140. 0.280   0.0   0.0
    170. 0.280   0.0   0.0
    200. 0.311 0.010 0.010
*PLANTING DETAILS   
   1995091     -99   7.0   7.0     S     R   76.    0.   4.0  -99.  -99. -99.0 -99.0 -99.0
*IRRIGATION         
   1.000    0.    0.    0. GS000 IR001   0.0
*FERTILIZERS        
        90 FE005 AP003    5.    0.    0.    0.  -99.  -99.   -99
*RESIDUES           
*CHEMICALS          
*TILLAGE            
*ENVIRONMENT        
*HARVEST            
     21304 GS000   -99   -99  100.    0.
*SOIL               
 FIFU960007  ICPA        SIC    200.   CERNOZIOM CAMBIC TIPIC - Fundulea SSE 2.5 km    
 Fundulea    ROMANIA      44.510  26.545 UDIC HAPLUSTOLL                                   
 BN     0.13   6.0  0.60   76.  1.00  1.00 IB001 IB001 IB001 -99  
    5.       0.208 0.344 0.393 1.000 0.150  1.19 1.740  38.8  54.6   0.0 0.180  6.30-99.00-99.00-99.00
   15.       0.208 0.344 0.393 1.000 0.150  1.19 1.740  38.8  54.6   0.0 0.180  6.30-99.00-99.00-99.00
   18.       0.208 0.344 0.393 1.000 0.150  1.19 1.740  38.8  54.6   0.0 0.180  6.30-99.00-99.00-99.00
   30.       0.204 0.341 0.391 1.000 0.150  1.40 1.740  37.8  57.3   0.0 0.170  6.50-99.00-99.00-99.00
   45.       0.214 0.347 0.397 1.000 .0900  1.41 1.400  40.0  50.4   0.0 0.150  6.80-99.00-99.00-99.00
   53.       0.213 0.348 0.393 0.750 0.150  1.44 1.220  39.8  53.9   0.0 0.140  7.20-99.00-99.00-99.00
   62.       0.213 0.348 0.393 0.750 0.150  1.44 1.220  39.8  53.9   0.0 0.140  7.20-99.00-99.00-99.00
   72.       0.203 0.339 0.395 0.200 0.150  1.44 1.100  37.7  54.6   0.0   0.0  7.20-99.00-99.00-99.00
   82.       0.203 0.339 0.395 0.200 0.150  1.44 1.100  37.7  54.6   0.0   0.0  7.20-99.00-99.00-99.00
  112.       0.193 0.329 0.396 0.200 0.150  1.44 0.700  35.3  56.2   0.0   0.0  7.20-99.00-99.00-99.00
  140.       0.183 0.319 0.396 0.150 0.150  1.44 0.520  32.8  58.8   0.0   0.0  7.40-99.00-99.00-99.00
  170.       0.180 0.316 0.398 0.150 0.150  1.32 0.470  32.3  57.7   0.0   0.0  8.10-99.00-99.00-99.00
  200.       0.174 0.311 0.398 0.100 0.150  1.36 0.350  31.0  59.2   0.0   0.0  8.20-99.00-99.00-99.00
                    
    5.-99.00 -99.0 -99.0 -99.0 -99.0 -99.0 -99.0 -99.0 -99.0 -99.0-99.00 -99.0 -99.0 -99.0 -99.0 -99.0  -99.
   15.-99.00 -99.0 -99.0 -99.0 -99.0 -99.0 -99.0 -99.0 -99.0 -99.0-99.00 -99.0 -99.0 -99.0 -99.0 -99.0  -99.
   18.-99.00 -99.0 -99.0 -99.0 -99.0 -99.0 -99.0 -99.0 -99.0 -99.0-99.00 -99.0 -99.0 -99.0 -99.0 -99.0  -99.
   30.-99.00 -99.0 -99.0 -99.0 -99.0 -99.0 -99.0 -99.0 -99.0 -99.0-99.00 -99.0 -99.0 -99.0 -99.0 -99.0  -99.
   45.-99.00 -99.0 -99.0 -99.0 -99.0 -99.0 -99.0 -99.0 -99.0 -99.0-99.00 -99.0 -99.0 -99.0 -99.0 -99.0  -99.
   53.-99.00 -99.0 -99.0 -99.0 -99.0 -99.0 -99.0 -99.0 -99.0 -99.0-99.00 -99.0 -99.0 -99.0 -99.0 -99.0  -99.
   62.-99.00 -99.0 -99.0 -99.0 -99.0 -99.0 -99.0 -99.0 -99.0 -99.0-99.00 -99.0 -99.0 -99.0 -99.0 -99.0  -99.
   72.-99.00 -99.0 -99.0 -99.0 -99.0 -99.0 -99.0 -99.0 -99.0 -99.0-99.00 -99.0 -99.0 -99.0 -99.0 -99.0  -99.
   82.-99.00 -99.0 -99.0 -99.0 -99.0 -99.0 -99.0 -99.0 -99.0 -99.0-99.00 -99.0 -99.0 -99.0 -99.0 -99.0  -99.
  112.-99.00 -99.0 -99.0 -99.0 -99.0 -99.0 -99.0 -99.0 -99.0 -99.0-99.00 -99.0 -99.0 -99.0 -99.0 -99.0  -99.
  140.-99.00 -99.0 -99.0 -99.0 -99.0 -99.0 -99.0 -99.0 -99.0 -99.0-99.00 -99.0 -99.0 -99.0 -99.0 -99.0  -99.
  170.-99.00 -99.0 -99.0 -99.0 -99.0 -99.0 -99.0 -99.0 -99.0 -99.0-99.00 -99.0 -99.0 -99.0 -99.0 -99.0  -99.
  200.-99.00 -99.0 -99.0 -99.0 -99.0 -99.0 -99.0 -99.0 -99.0 -99.0-99.00 -99.0 -99.0 -99.0 -99.0 -99.0  -99.
                    
    5.-99.00-99.00-99.00-99.00
   15.-99.00-99.00-99.00-99.00
   18.-99.00-99.00-99.00-99.00
   30.-99.00-99.00-99.00-99.00
   45.-99.00-99.00-99.00-99.00
   53.-99.00-99.00-99.00-99.00
   62.-99.00-99.00-99.00-99.00
   72.-99.00-99.00-99.00-99.00
   82.-99.00-99.00-99.00-99.00
  112.-99.00-99.00-99.00-99.00
  140.-99.00-99.00-99.00-99.00
  170.-99.00-99.00-99.00-99.00
  200.-99.00-99.00-99.00-99.00
*CULTIVAR           
IB0031 PIO 3475*        IB0001  200.0 0.700 800.0 797.5  8.60 38.90
