*EXP.DETAILS: FIFU9901MZ PREPCLIM PROJECT                                            

*FILES
@N  EXP.DATA    AFILE        ADIR
  1 EXP         FIFU9901.MZA                                                                                 
@N  SPECIES     SPFILE       SPDIR
  1 SPE         MZCER048.SPE                                                                                 
@N  ECOTYPE     EFILE        EDIR
  1 ECO         MZCER048.ECO                                                                                 
@N  CULTIVAR    CFILE        CDIR
  1 CUL         MZCER048.CUL                                                                                 
@N  SOIL        SFILE        SDIR
  1 SOIL        SOIL.SOL                                                                                     
@N  WEATHER     WFILE        WDIR
  1 WEATH       RCP82101.WTH                                                                                 

*SIMULATION CONTROL
@N  GENERAL     NYERS NREPS START   SDATE RSEED SNAME.................... MODEL...
  1 GE              1     1     S 2021001  2150 1999, AMES POPxNxHYB      MZCER048
@N  OPTIONS     WATER NITRO SYMBI PHOSP POTAS DISES  CHEM  TILL   CO2
  1 OP              Y     Y     N     N     N     N     N     Y     M
@N  METHODS     WTHER INCON LIGHT EVAPO INFIL PHOTO HYDRO NSWIT SOMDY MESEV MESOL METMP MEGHG
  1 ME              M     M     E     R     S     C     R     1     G     S     2     D     0
@N  MANAGEMENT  PLANT IRRIG FERTI RESID HARVS
  1 MA              R     N     D     R     M
@N  OUTPUTS     FNAME OVVEW SUMRY FROPT GROUT CAOUT WAOUT NIOUT MIOUT DIOUT  LONG CHOUT OPOUT
  1 OU              Y     Y     Y     1     Y     Y     Y     Y     N     N     Y     N     N

!AUTOMATIC MANAGEM
@N  PLANTING      PFRST   PLAST PH2OL PH2OU PH2OD PSTMX PSTMN
  1 PL              -99     -99   25.  100.   30.   40.   10.
@N  IRRIGATION  IMDEP ITHRL ITHRU IROFF IMETH IRAMT IREFF
  1 IR            30.   50.  100. GS000 IR001  10.0 1.000
@N  NITROGEN    NMDEP NMTHR NAMNT NCODE NAOFF
  1 NI            30.   50.   25. FE001 GS000
@N  RESIDUES    RIPCN RTIME RIDEP
  1 RE           100.     1   20.
@N  HARVEST     HFRST   HLAST HPCNP HRCNR
  1 HA              0     -99  100.    0.

*TREATMENTS
@N   R O C TNAME....................  CU  FL  SA  IC  MP  MI  MF  MR  MC  MT  ME  MH  SM
  1  1 0 0 P:04_01 N000                1   1   0   1   1   0   1   0   0   0   0   1   1

*CULTIVARS
@C  CR INGENO CNAME
  1 MZ IB0031 PIO 3475*       

*FIELDS
@L  ID_FIELD WSTA....  FLSA  FLOB  FLDT  FLDD  FLDS  FLST SLTX   SLDP ID_SOIL
  1 IUAF0001 RCP82101   0.0    0. DR000  900.  100. 00000 SIC    200. FIFU960007
@L             XCRD            YCRD      ELEV              AREA  SLEN  FLWR  SLAS PRMGT
  1        -0.00000        -0.00000     -0.10               1.0  100.   1.0 -99.0   -99   -99

*INITIAL CONDITIONS
@C  PCR     ICDAT  ICRT  ICND  ICRN  ICRE  ICWD ICRES ICREN ICREP ICRIP ICRID
  1 MZ    1974115    50     0  1.00  1.00   0.0     0  0.00  0.00  100.    0.
@C   ICBL  SH2O  SNH4  SNO3
  1    5. 0.228   0.0   1.0
  1   15. 0.228   0.0   1.0
  1   18. 0.228   0.0   0.5
  1   30. 0.228   0.0   0.1
  1   45. 0.228   0.0   0.0
  1   53. 0.259   0.0   0.0
  1   62. 0.310   0.0   0.0
  1   72. 0.311   0.0   0.0
  1   82. 0.320   0.0   0.0
  1  112. 0.304   0.0   0.0
  1  140. 0.280   0.0   0.0
  1  170. 0.280   0.0   0.0
  1  200. 0.311   0.0   0.0

*PLANTING DETAILS
@P    PDATE   EDATE  PPOP  PPOE  PLME  PLDS  PLRS  PLRD  PLDP  PLWT  PAGE  PENV  PLPH  SPRL
  1 1995091     -99   7.0   7.0     S     R   76.    0.   4.0  -99.  -99. -99.0 -99.0 -99.0

*IRRIGATION
@I   IEFF  IDEP  ITHR  IEPT  IOFF  IAME  IAMT
  0 1.000    0.    0.    0. GS000 IR001   0.0
@I    IDATE  IROP IRVAL

*FERTILIZERS
@F    FDATE  FMCD  FACD  FDEP  FAMN  FAMP  FAMK  FAMC  FAMO  FOCD
  1      90 FE005 AP003    5.    0.    0.    0.  -99.  -99.   -99

*RESIDUES
@R    RDATE  RCOD  RAMT  RESN  RESP  RESK  RINP  RDEP  RMET

*CHEMICALS
@C    CDATE CHCOD CHAMT  CHME CHDEP   CHT

*TILLAGE
@T    TDATE TIMPL  TDEP

*ENVIRONMENT
@E    ODATE  EDAY  ERAD  EMAX  EMIN ERAIN  ECO2  EDEW EWIND

*HARVEST
@H    HDATE  HSTG  HCOM HSIZE   HPC  HBPC
  1   21304 GS000   -99   -99  100.    0.
