*EXP.DETAILS: FIFU9901MZ PREPCLIM PROJECT

*GENERAL
@PEOPLE
Lazar Catalin & Caian Mihaela & Chitu Zenaida 
@ADDRESS
INCDA Fundulea   ANM 
@SITE
NARDI Fundulea
@ PAREA  PRNO  PLEN  PLDR  PLSP  PLAY HAREA  HRNO  HLEN  HARM.........
    -99   -99   -99   -99   -99   -99   -99   -99   -99   -99
@NOTES
The purpose of this experiment was to collect baseline data to test CERES Maize
in Iowa. Two plant populations (4.7 and 7.5 plants/m2) and two nitrogen
rates ((56 and 224 kg N/ha)were established in a randomized complete block
design. Various biomass data were collected during the season and
are recorded in the associated fileT.


*TREATMENTS                        -------------FACTOR LEVELS------------
@N R O C TNAME.................... CU FL SA IC MP MI MF MR MC MT ME MH SM
 1 1 0 0 P:04_01 N000               1  1  0  1  1  0  1  0  0  0  0  1  1
 2 1 0 0 P:04_15 N000               1  1  0  1  2  0  1  0  0  0  0  1  1
 3 1 0 0 P:04_30 N000               1  1  0  1  3  0  1  0  0  0  0  1  1
 4 1 0 0 P:05_15 N000               1  1  0  1  4  0  1  0  0  0  0  1  1
 5 1 0 0 P:04_01 N023               1  1  0  1  1  0  2  0  0  0  0  1  1
 6 1 0 0 P:04_15 N023               1  1  0  1  2  0  2  0  0  0  0  1  1
 7 1 0 0 P:04_30 N023               1  1  0  1  3  0  2  0  0  0  0  1  1
 8 1 0 0 P:05_15 N023               1  1  0  1  4  0  2  0  0  0  0  1  1
 9 1 0 0 P:04_01 N046               1  1  0  1  1  0  3  0  0  0  0  1  1
10 1 0 0 P:04_15 N046               1  1  0  1  2  0  3  0  0  0  0  1  1
11 1 0 0 P:04_30 N046               1  1  0  1  3  0  3  0  0  0  0  1  1
12 1 0 0 P:05_15 N046               1  1  0  1  4  0  3  0  0  0  0  1  1

*CULTIVARS
@C CR INGENO CNAME
 1 MZ IB0031 PIO 3475*

*FIELDS
@L ID_FIELD WSTA....  FLSA  FLOB  FLDT  FLDD  FLDS  FLST SLTX  SLDP  ID_SOIL    FLNAME
 1 IUAF0001 RCP8       -99     0 DR000   900     0 00000 SIC    200  FIFU960007 -99
@L ...........XCRD ...........YCRD .....ELEV .............AREA .SLEN .FLWR .SLAS FLHST FHDUR
 1             -99             -99       -99               -99   -99   -99   -99   -99   -99

*INITIAL CONDITIONS
@C   PCR ICDAT  ICRT  ICND  ICRN  ICRE  ICWD ICRES ICREN ICREP ICRIP ICRID ICNAME
 1    MZ 74115    50     0     1     1   -99   -99   -99   -99   -99   -99 -99
@C  ICBL  SH2O  SNH4  SNO3
 1    15  .228     0     1
 1    20  .228     0    .5
 1    50  .228     0     0
 1    71   .31     0     0
 1   100   .32     0     0
 1   126   .28     0     0
 1   151   .28     0     0

*PLANTING DETAILS
@P PDATE EDATE  PPOP  PPOE  PLME  PLDS  PLRS  PLRD  PLDP  PLWT  PAGE  PENV  PLPH  SPRL                        PLNAME
 1 95091   -99     7     7     S     R    76     0     4   -99   -99   -99   -99   -99                        01 aprilie
 2 21101   -99     7     7     S     R    76     0     4   -99   -99   -99   -99   -99                        15 aprilie
 3 21120   -99     7     7     S     R    76     0     4   -99   -99   -99   -99   -99                        30 aprilie
 4 21135   -99     7     7     S     R    76     0     4   -99   -99   -99   -99   -99                        15 mai

*IRRIGATION AND WATER MANAGEMENT
@I  EFIR  IDEP  ITHR  IEPT  IOFF  IAME  IAMT IRNAME
 1     1    30    50   100 GS000 IR001    10 -99
@I IDATE  IROP IRVAL
 1 21000   -99   0

*FERTILIZERS (INORGANIC)
@F FDATE  FMCD  FACD  FDEP  FAMN  FAMP  FAMK  FAMC  FAMO  FOCD FERNAME
 1    90 FE005 AP003     5     0     0     0   -99   -99   -99 Nefertilizat
 2    90 FE005 AP003     5    0     0     0   -99   -99   -99 Fertilizare initiala 14 dap 0 kg N
 3    90 FE005 AP003     5    0     0     0   -99   -99   -99 Fertilizare initiala 14 dap 0 kg N

*HARVEST DETAILS
@H HDATE  HSTG  HCOM HSIZE   HPC  HBPC HNAME
 1 21304 GS000   -99   -99   -99   -99 

*SIMULATION CONTROLS
@N GENERAL     NYERS NREPS START SDATE RSEED SNAME.................... SMODEL
 1 GE              1     1     S 21001  2150 1999, AMES POPxNxHYB      MZCER
@N OPTIONS     WATER NITRO SYMBI PHOSP POTAS DISES  CHEM  TILL   CO2
 1 OP              Y     Y     N     N     N     N     N     Y     M
@N METHODS     WTHER INCON LIGHT EVAPO INFIL PHOTO HYDRO NSWIT MESOM MESEV MESOL
 1 ME              M     M     E     R     S     C     R     1     G     S     2
@N MANAGEMENT  PLANT IRRIG FERTI RESID HARVS
 1 MA              R     N     D     R     M
@N OUTPUTS     FNAME OVVEW SUMRY FROPT GROUT CAOUT WAOUT NIOUT MIOUT DIOUT VBOSE CHOUT OPOUT FMOPT
 1 OU              Y     Y     Y     1     Y     Y     Y     Y     N     N     Y     N     N     A

@  AUTOMATIC MANAGEMENT
@N PLANTING    PFRST PLAST PH2OL PH2OU PH2OD PSTMX PSTMN
 1 PL          00120 00200    25   100    30    40    10
@N IRRIGATION  IMDEP ITHRL ITHRU IROFF IMETH IRAMT IREFF
 1 IR             30    50   100 GS000 IR001    10     1
@N NITROGEN    NMDEP NMTHR NAMNT NCODE NAOFF
 1 NI             30    50    25 FE001 GS000
@N RESIDUES    RIPCN RTIME RIDEP
 1 RE            100     1    20
@N HARVEST     HFRST HLAST HPCNP HPCNR
 1 HA              0 21334   100     0



